36
T-Kreuzung
Zn   0.000    0.000   0.000           0
Zn   2.500    0.000   0.000           1
Zn   4.000    0.000   0.000           2
O    6.200    0.000   0.000           3
Zn   8.000    0.000   0.000           4
Zn   11.000   0.000   0.000           5
O    13.600   0.000   0.000           6
Zn   14.900   0.000   0.000           7
Zn   17.000   0.000   0.000           8
Zn   20.000   0.000   0.000           9
O    22.000   0.000   0.000           10
Zn   24.500   0.000   0.000           11
O    26.100   0.000   0.000           12
Zn   28.600   0.000   0.000           13
Zn   30.000   0.000   0.000           14
O    33.000   0.000   0.000           15
Zn   35.500   0.000   0.000           16
O    37.100   0.000   0.000           17
Zn   39.600   0.000   0.000           18
Zn   42.000   0.000   0.000           19
Zn   10.000   2.000   0.000           20
Zn   10.000   4.000   0.000           21
Zn   10.000   6.000   0.000           22
Zn   10.000   8.000   0.000           23
Zn   10.000   10.000  0.000           24
Zn   10.000   12.000  0.000           25
Zn   10.000   14.000  0.000           26
Zn   10.000   16.000  0.000           27
Zn   10.000   18.000  0.000           28
Zn   10.000   19.000  0.000           29
O    15.000    2.000   0.000           30
O    15.000    5.000   0.000           31
O    15.000    8.000   0.000           32
O    15.000    11.000  0.000          33
O    15.000    14.000  0.000          34
Zn   12.500    14.000  0.000          35